LAMMPS (30 Jul 2021)
# LMO uniaxial tensile test, Prateek Gandhi, October 2021.

##---------------INITIALIZATION-------------------------------

units          metal
dimension 	    3
boundary       p p p
atom_style 	atomic
newton 		on

##---------------ATOM DEFINITION------------------------------

read_data 	limn2o4.lmp
Reading data file ...
  orthogonal box = (0.0000000 0.0000000 0.0000000) to (8.2450000 8.2450000 8.2450000)
  reading atoms ...
  56 atoms

##---------------FORCE FIELDS---------------------------------

pair_style 	meam
pair_coeff     * * library.meam Li Mn O library.meam_alloy Li Mn O

##---------------SETTINGS-------------------------------------

timestep 	0.00002
variable   ts equal 0.00002

##---------------COMPUTES-------------------------------------

compute 	1 all stress/atom NULL
compute    2 all reduce sum c_1[1] c_1[2]

variable   Lx equal lx
variable   Ly equal ly
variable   Lz equal lz
variable   Vol equal vol
variable   thickn equal 8.245
fix 1 all npt temp 300 300 1 iso 0 0 1 drag 1
thermo 	2000
##---------------RELAXATION--------------------------------------

run            50000
  update every 1 steps, delay 10 steps, check yes
Step Temp E_pair E_mol TotEng Press Volume
0            0   -107.09453            0   -107.09453    44246.373    560.49531
Averages over the last 13 of 26 rows, steps 26000 to 50000:
Temp E_pair E_mol TotEng Press Volume
26.9957 -107.44 0 -107.248 -356.845 580.903
Loop time of 95.7368 on 1 procs for 50000 steps with 56 atoms

##---------------DEFORMATION--------------------------------------
unfix              1
reset_timestep     0
fix		1 all npt temp 300 300 1 y 0 0 1 z 0 0 1 drag 1
fix        2 all ave/time 1 100 100 c_2[1] c_2[2]
fix        3 all ave/time 1 100 100 v_Lx v_Ly v_Lz v_Vol
variable   srate equal 5.0e10
variable   srate1 equal "v_srate / 1.0e12"
fix		4 all deform 1 x erate 0.05 units box remap x
run            100
Step Temp E_pair E_mol TotEng Press Volume
0    22.337761   -107.39197            0   -107.23316   -1410.7949    583.80212
Loop time of 0.187484 on 1 procs for 100 steps with 56 atoms

##---------------THERMO-OUTPUTS--------------------------------------
variable   CorVol equal f_3[4]*v_thickn/(f_3[3])
variable   ConvoFac equal 1/1.0e4
variable   sigmaxx equal f_2[1]*v_ConvoFac/v_CorVol
variable   sigmayy equal f_2[2]*v_ConvoFac/v_CorVol
variable   StrainPerTs equal v_srate1*v_ts
variable   strain equal v_StrainPerTs*step
thermo 	100
thermo_style custom step temp v_strain v_sigmaxx v_sigmayy pe ke lx ly vol

##---------------DEFORMATION--------------------------------------
dump           1 all atom 5000 tensile_testat0point001.lammpstrj
run            500000
Step Temp v_strain v_sigmaxx v_sigmayy PotEng KinEng Lx Ly Volume
100    34.066649       0.0001   0.22653814   0.21663706   -107.47526    0.2421903      8.35857    8.3577265    583.85942
Averages over the last 2501 of 5001 rows, steps 250100 to 500100:
Temp v_strain v_sigmaxx v_sigmayy PotEng KinEng Lx Ly Volume
257.549 0.3751 2.70114 -0.0153194 -99.7362 1.831 11.493 7.83643 702.306
Loop time of 1055.2 on 1 procs for 500000 steps with 56 atoms
