LAMMPS (30 Jul 2021)
# LMO uniaxial tensile test, Prateek Gandhi, October 2021.

##---------------INITIALIZATION-------------------------------

units          metal
dimension 	    3
boundary       p p p
atom_style 	atomic
newton 		on

##---------------ATOM DEFINITION------------------------------

read_data 	limn2o4Super2.lmp
Reading data file ...
  orthogonal box = (0.0000000 0.0000000 0.0000000) to (16.490000 16.490000 16.490000)
  reading atoms ...
  448 atoms

##---------------FORCE FIELDS---------------------------------

pair_style 	meam
pair_coeff     * * library.meam Li Mn O library.meam_alloy Li Mn O

##---------------SETTINGS-------------------------------------

timestep 	0.00001
variable   ts equal 0.00001

##---------------COMPUTES-------------------------------------

compute 	1 all stress/atom NULL
compute    2 all reduce sum c_1[1] c_1[2]

variable   Lx equal lx
variable   Ly equal ly
variable   Lz equal lz
variable   Vol equal vol
variable   thickn equal 8.245
fix 1 all npt temp 300 300 1 iso 0 0 1 drag 1
thermo 	2000
##---------------RELAXATION--------------------------------------

run            50000
  update every 1 steps, delay 10 steps, check yes
Step Temp E_pair E_mol TotEng Press Volume
0            0   -856.75623            0   -856.75623    44246.373    4483.9624
Averages over the last 13 of 26 rows, steps 26000 to 50000:
Temp E_pair E_mol TotEng Press Volume
27.7489 -859.96 0 -858.357 233.251 4640.57
Loop time of 884.067 on 1 procs for 50000 steps with 448 atoms

##---------------DEFORMATION--------------------------------------
unfix              1
reset_timestep     0
fix		1 all npt temp 300 300 1 y 0 0 1 z 0 0 1 drag 1
fix        2 all ave/time 1 100 100 c_2[1] c_2[2]
fix        3 all ave/time 1 100 100 v_Lx v_Ly v_Lz v_Vol
variable   srate equal 1.0e11
variable   srate1 equal "v_srate / 1.0e12"
fix		4 all deform 1 x erate 0.1 units box remap x
run            100
Step Temp E_pair E_mol TotEng Press Volume
0    9.5342757   -858.91878            0    -858.3679   -188.46895    4630.8093
Loop time of 1.44917 on 1 procs for 100 steps with 448 atoms

##---------------THERMO-OUTPUTS--------------------------------------
variable   CorVol equal f_3[4]*v_thickn/(f_3[3])
variable   ConvoFac equal 1/1.0e4
variable   sigmaxx equal f_2[1]*v_ConvoFac/v_CorVol
variable   sigmayy equal f_2[2]*v_ConvoFac/v_CorVol
variable   StrainPerTs equal v_srate1*v_ts
variable   strain equal v_StrainPerTs*step
thermo 	100
thermo_style custom step temp v_strain v_sigmaxx v_sigmayy pe ke lx ly vol

##---------------DEFORMATION--------------------------------------
dump           1 all atom 5000 tensile_testat0point001.lammpstrj
run            500000
Step Temp v_strain v_sigmaxx v_sigmayy PotEng KinEng Lx Ly Volume
100    14.216073       0.0001   0.07705271  0.060069141   -859.18913   0.82139455    16.669749    16.668082     4631.272
Averages over the last 616 of 1232 rows, steps 61700 to 123200:
Temp v_strain v_sigmaxx v_sigmayy PotEng KinEng Lx Ly Volume
30.3067 0.09245 24.0769 0.0166929 -840.624 1.7511 18.2092 16.4521 4928.36
