LAMMPS (30 Jul 2021)
# LMO uniaxial tensile test, Prateek Gandhi, October 2021.

##---------------INITIALIZATION-------------------------------

units          metal
dimension 	    3
boundary       p p p
atom_style 	atomic
newton 		on

##---------------ATOM DEFINITION------------------------------

read_data 	1514019.lmp
Reading data file ...
  orthogonal box = (0.0000000 0.0000000 0.0000000) to (8.1570000 8.1570000 8.1570000)
  reading atoms ...
  32 atoms

##---------------FORCE FIELDS---------------------------------

pair_style 	meam
pair_coeff     * * library.meam Li Mn O library.meam_alloy Li Mn O

##---------------SETTINGS-------------------------------------

timestep 	0.0001
variable   ts equal 0.0001

##---------------COMPUTES-------------------------------------

compute 	1 all stress/atom NULL
compute    2 all reduce sum c_1[1] c_1[2]

variable   Lx equal lx
variable   Ly equal ly
variable   Lz equal lz
variable   Vol equal vol
variable   thickn equal 8.245
fix 1 all npt temp 300 300 1 iso 0 0 1 drag 1
thermo 	2000
##---------------RELAXATION--------------------------------------

run            50000
  update every 1 steps, delay 10 steps, check yes
Step Temp E_pair E_mol TotEng Press Volume
0            0    4501.2062            0    4501.2062    1058449.3    542.73945
Averages over the last 13 of 26 rows, steps 26000 to 50000:
Temp E_pair E_mol TotEng Press Volume
1744.85 -45.0046 0 -38.0128 5.28445 312985
Loop time of 5.3121 on 1 procs for 50000 steps with 32 atoms

##---------------DEFORMATION--------------------------------------
unfix              1
reset_timestep     0
fix		1 all npt temp 300 300 1 y 0 0 1 z 0 0 1 drag 1
fix        2 all ave/time 1 100 100 c_2[1] c_2[2]
fix        3 all ave/time 1 100 100 v_Lx v_Ly v_Lz v_Vol
variable   srate equal 1.0e10
variable   srate1 equal "v_srate / 1.0e12"
fix		4 all deform 1 x erate 0.01 units box remap x
run            100
Step Temp E_pair E_mol TotEng Press Volume
0     1392.927   -69.412645            0   -63.831096   -21.120787    790177.75
Loop time of 0.015646 on 1 procs for 100 steps with 32 atoms

##---------------THERMO-OUTPUTS--------------------------------------
variable   CorVol equal f_3[4]*v_thickn/(f_3[3])
variable   ConvoFac equal 1/1.0e4
variable   sigmaxx equal f_2[1]*v_ConvoFac/v_CorVol
variable   sigmayy equal f_2[2]*v_ConvoFac/v_CorVol
variable   StrainPerTs equal v_srate1*v_ts
variable   strain equal v_StrainPerTs*step
thermo 	100
thermo_style custom step temp v_strain v_sigmaxx v_sigmayy pe ke lx ly vol

##---------------DEFORMATION--------------------------------------
dump           1 all atom 5000 tensile_test2.lammpstrj
run            500000
Step Temp v_strain v_sigmaxx v_sigmayy PotEng KinEng Lx Ly Volume
100    1733.0969       0.0001 -0.00088895546 0.0018535429   -71.012925     6.944631    92.459533     92.45556    790614.33
Averages over the last 787 of 1574 rows, steps 78800 to 157400:
Temp v_strain v_sigmaxx v_sigmayy PotEng KinEng Lx Ly Volume
298.096 0.1181 -0.000209946 -6.70544e-06 -29.9946 1.19449 103.37 1703.53 1.00149e+08
