LAMMPS (30 Jul 2021)
#uniaxial tensile test of graphene

##---------------INITIALIZATION-------------------------------

units          metal
dimension 	    3
boundary       p p f
atom_style 	atomic
newton 		on

##---------------ATOM DEFINITION------------------------------

read_data 	grap.data.txt
Reading data file ...
  orthogonal box = (-0.69800000 -0.60448600 -10.000000) to (49.558000 50.172316 10.000000)
  reading atoms ...
  1008 atoms

##---------------FORCE FIELDS---------------------------------

pair_style 	airebo 3.0
pair_coeff     * * CH.airebo C
Reading airebo potential file CH.airebo with DATE: 2011-10-25

##---------------SETTINGS-------------------------------------

timestep 	0.0005
variable   ts equal 0.0005

##---------------COMPUTES-------------------------------------

compute 	1 all stress/atom NULL
compute    2 all reduce sum c_1[1] c_1[2]

variable   Lx equal lx
variable   Ly equal ly
variable   Lz equal lz
variable   Vol equal vol
variable   thickn equal 3.4
fix		1 all npt temp 300 300 0.05 x 0 0 0.5 y 0 0 0.5
thermo 	2000
##---------------RELAXATION--------------------------------------

run            50000
  update every 1 steps, delay 10 steps, check yes
Step Temp E_pair E_mol TotEng Press Volume
0            0   -7483.3478            0   -7483.3478    557.19809    51036.779
Averages over the last 13 of 26 rows, steps 26000 to 50000:
Temp E_pair E_mol TotEng Press Volume
301.208 -7448.42 0 -7409.21 128.586 51162.5
Loop time of 680.369 on 1 procs for 50000 steps with 1008 atoms

##---------------DEFORMATION--------------------------------------
unfix              1
reset_timestep     0
fix		1 all npt temp 300 300 0.05 x 0 0 0.5
fix        2 all ave/time 1 100 100 c_2[1] c_2[2]
fix        3 all ave/time 1 100 100 v_Lx v_Ly v_Lz v_Vol
variable   srate equal 1.0e9
variable   srate1 equal "v_srate / 1.0e12"
fix		4 all deform 1 y erate 0.001 units box remap x
run            100
Step Temp E_pair E_mol TotEng Press Volume
0    311.59912   -7447.5819            0   -7407.0226    307.55782    51138.709
Loop time of 1.17181 on 1 procs for 100 steps with 1008 atoms

##---------------THERMO-OUTPUTS--------------------------------------
variable   CorVol equal f_3[4]*v_thickn/(f_3[3])
variable   ConvoFac equal 1/1.0e4
variable   sigmaxx equal f_2[1]*v_ConvoFac/v_CorVol
variable   sigmayy equal f_2[2]*v_ConvoFac/v_CorVol
variable   StrainPerTs equal v_srate1*v_ts
variable   strain equal v_StrainPerTs*step
thermo 	100
thermo_style custom step temp v_strain v_sigmaxx v_sigmayy pe ke lx ly vol

##---------------DEFORMATION--------------------------------------
dump           1 all atom 5000 tensile_test.lammpstrj
run            500000
Step Temp v_strain v_sigmaxx v_sigmayy PotEng KinEng Lx Ly Volume
100    308.06698        5e-05   0.10845506  -0.11848534   -7448.4446    40.099528    50.317881    50.833977    51157.159
Averages over the last 220 of 439 rows, steps 22000 to 43900:
Temp v_strain v_sigmaxx v_sigmayy PotEng KinEng Lx Ly Volume
299.748 0.016475 0.00134667 14.9141 -7440.79 39.0167 50.1262 51.6689 51799.2
